
---------- Begin Simulation Statistics ----------
simSeconds                                   1.603000                       # Number of seconds simulated (Second)
simTicks                                 1603000058000                       # Number of ticks simulated (Tick)
finalTick                                1603000058000                       # Number of ticks from beginning of simulation (restored from checkpoints and never reset) (Tick)
simFreq                                  1000000000000                       # The number of ticks per simulated second ((Tick/Second))
hostSeconds                                    931.12                       # Real time elapsed on the host (Second)
hostTickRate                               1721591226                       # The number of ticks simulated per host second (ticks/s) ((Tick/Second))
hostMemory                                    5498720                       # Number of bytes of host memory used (Byte)
board.cache_hierarchy.core_tiles0.cross_tile_router.percent_links_utilized            0                       (Unspecified)
board.cache_hierarchy.core_tiles0.cross_tile_router.power_state.pwrStateResidencyTicks::UNDEFINED 1603000058000                       # Cumulative time (in ticks) in various power states (Tick)
board.cache_hierarchy.core_tiles0.cross_tile_router.throttle00.acc_link_utilization            0                       # Accumulated link utilization (Count)
board.cache_hierarchy.core_tiles0.cross_tile_router.throttle00.link_utilization            0                       # Average link utilization (Ratio)
board.cache_hierarchy.core_tiles0.cross_tile_router.throttle00.total_msg_count            0                       # Total number of messages forwarded by this switch (Count)
board.cache_hierarchy.core_tiles0.cross_tile_router.throttle00.total_msg_bytes            0                       # Total number of bytes forwarded by this switch (Byte)
board.cache_hierarchy.core_tiles0.cross_tile_router.throttle00.total_data_msg_bytes            0                       # Total number of data bytes forwarded by this switch (Byte)
board.cache_hierarchy.core_tiles0.cross_tile_router.throttle00.total_msg_wait_time            0                       # Total time spend forwarding messages (Tick)
board.cache_hierarchy.core_tiles0.cross_tile_router.throttle00.total_stall_cy            0                       # Total time spent blocked on any output link (Cycle)
board.cache_hierarchy.core_tiles0.cross_tile_router.throttle00.total_bw_sat_cy            0                       # Total time bandwidth was saturated on any output link (Cycle)
board.cache_hierarchy.core_tiles0.cross_tile_router.throttle00.avg_msg_wait_time          nan                       # Average time a message took to be forwarded (Ratio)
board.cache_hierarchy.core_tiles0.cross_tile_router.throttle00.avg_bandwidth         0.00                       # Average bandwidth (GB/s) (Ratio)
board.cache_hierarchy.core_tiles0.cross_tile_router.throttle00.avg_useful_bandwidth         0.00                       # Average usefull (only data) bandwidth (GB/s) (Ratio)
board.cache_hierarchy.core_tiles0.cross_tile_router.throttle01.acc_link_utilization            0                       # Accumulated link utilization (Count)
board.cache_hierarchy.core_tiles0.cross_tile_router.throttle01.link_utilization            0                       # Average link utilization (Ratio)
board.cache_hierarchy.core_tiles0.cross_tile_router.throttle01.total_msg_count            0                       # Total number of messages forwarded by this switch (Count)
board.cache_hierarchy.core_tiles0.cross_tile_router.throttle01.total_msg_bytes            0                       # Total number of bytes forwarded by this switch (Byte)
board.cache_hierarchy.core_tiles0.cross_tile_router.throttle01.total_data_msg_bytes            0                       # Total number of data bytes forwarded by this switch (Byte)
board.cache_hierarchy.core_tiles0.cross_tile_router.throttle01.total_msg_wait_time            0                       # Total time spend forwarding messages (Tick)
board.cache_hierarchy.core_tiles0.cross_tile_router.throttle01.total_stall_cy            0                       # Total time spent blocked on any output link (Cycle)
board.cache_hierarchy.core_tiles0.cross_tile_router.throttle01.total_bw_sat_cy            0                       # Total time bandwidth was saturated on any output link (Cycle)
board.cache_hierarchy.core_tiles0.cross_tile_router.throttle01.avg_msg_wait_time          nan                       # Average time a message took to be forwarded (Ratio)
board.cache_hierarchy.core_tiles0.cross_tile_router.throttle01.avg_bandwidth         0.00                       # Average bandwidth (GB/s) (Ratio)
board.cache_hierarchy.core_tiles0.cross_tile_router.throttle01.avg_useful_bandwidth         0.00                       # Average usefull (only data) bandwidth (GB/s) (Ratio)
board.cache_hierarchy.core_tiles0.cross_tile_router.throttle02.acc_link_utilization            0                       # Accumulated link utilization (Count)
board.cache_hierarchy.core_tiles0.cross_tile_router.throttle02.link_utilization            0                       # Average link utilization (Ratio)
board.cache_hierarchy.core_tiles0.cross_tile_router.throttle02.total_msg_count            0                       # Total number of messages forwarded by this switch (Count)
board.cache_hierarchy.core_tiles0.cross_tile_router.throttle02.total_msg_bytes            0                       # Total number of bytes forwarded by this switch (Byte)
board.cache_hierarchy.core_tiles0.cross_tile_router.throttle02.total_data_msg_bytes            0                       # Total number of data bytes forwarded by this switch (Byte)
board.cache_hierarchy.core_tiles0.cross_tile_router.throttle02.total_msg_wait_time            0                       # Total time spend forwarding messages (Tick)
board.cache_hierarchy.core_tiles0.cross_tile_router.throttle02.total_stall_cy            0                       # Total time spent blocked on any output link (Cycle)
board.cache_hierarchy.core_tiles0.cross_tile_router.throttle02.total_bw_sat_cy            0                       # Total time bandwidth was saturated on any output link (Cycle)
board.cache_hierarchy.core_tiles0.cross_tile_router.throttle02.avg_msg_wait_time          nan                       # Average time a message took to be forwarded (Ratio)
board.cache_hierarchy.core_tiles0.cross_tile_router.throttle02.avg_bandwidth         0.00                       # Average bandwidth (GB/s) (Ratio)
board.cache_hierarchy.core_tiles0.cross_tile_router.throttle02.avg_useful_bandwidth         0.00                       # Average usefull (only data) bandwidth (GB/s) (Ratio)
board.cache_hierarchy.core_tiles0.cross_tile_router.throttle03.acc_link_utilization            0                       # Accumulated link utilization (Count)
board.cache_hierarchy.core_tiles0.cross_tile_router.throttle03.link_utilization            0                       # Average link utilization (Ratio)
board.cache_hierarchy.core_tiles0.cross_tile_router.throttle03.total_msg_count            0                       # Total number of messages forwarded by this switch (Count)
board.cache_hierarchy.core_tiles0.cross_tile_router.throttle03.total_msg_bytes            0                       # Total number of bytes forwarded by this switch (Byte)
board.cache_hierarchy.core_tiles0.cross_tile_router.throttle03.total_data_msg_bytes            0                       # Total number of data bytes forwarded by this switch (Byte)
board.cache_hierarchy.core_tiles0.cross_tile_router.throttle03.total_msg_wait_time            0                       # Total time spend forwarding messages (Tick)
board.cache_hierarchy.core_tiles0.cross_tile_router.throttle03.total_stall_cy            0                       # Total time spent blocked on any output link (Cycle)
board.cache_hierarchy.core_tiles0.cross_tile_router.throttle03.total_bw_sat_cy            0                       # Total time bandwidth was saturated on any output link (Cycle)
board.cache_hierarchy.core_tiles0.cross_tile_router.throttle03.avg_msg_wait_time          nan                       # Average time a message took to be forwarded (Ratio)
board.cache_hierarchy.core_tiles0.cross_tile_router.throttle03.avg_bandwidth         0.00                       # Average bandwidth (GB/s) (Ratio)
board.cache_hierarchy.core_tiles0.cross_tile_router.throttle03.avg_useful_bandwidth         0.00                       # Average usefull (only data) bandwidth (GB/s) (Ratio)
board.cache_hierarchy.core_tiles0.cross_tile_router.throttle04.acc_link_utilization            0                       # Accumulated link utilization (Count)
board.cache_hierarchy.core_tiles0.cross_tile_router.throttle04.link_utilization            0                       # Average link utilization (Ratio)
board.cache_hierarchy.core_tiles0.cross_tile_router.throttle04.total_msg_count            0                       # Total number of messages forwarded by this switch (Count)
board.cache_hierarchy.core_tiles0.cross_tile_router.throttle04.total_msg_bytes            0                       # Total number of bytes forwarded by this switch (Byte)
board.cache_hierarchy.core_tiles0.cross_tile_router.throttle04.total_data_msg_bytes            0                       # Total number of data bytes forwarded by this switch (Byte)
board.cache_hierarchy.core_tiles0.cross_tile_router.throttle04.total_msg_wait_time            0                       # Total time spend forwarding messages (Tick)
board.cache_hierarchy.core_tiles0.cross_tile_router.throttle04.total_stall_cy            0                       # Total time spent blocked on any output link (Cycle)
board.cache_hierarchy.core_tiles0.cross_tile_router.throttle04.total_bw_sat_cy            0                       # Total time bandwidth was saturated on any output link (Cycle)
board.cache_hierarchy.core_tiles0.cross_tile_router.throttle04.avg_msg_wait_time          nan                       # Average time a message took to be forwarded (Ratio)
board.cache_hierarchy.core_tiles0.cross_tile_router.throttle04.avg_bandwidth         0.00                       # Average bandwidth (GB/s) (Ratio)
board.cache_hierarchy.core_tiles0.cross_tile_router.throttle04.avg_useful_bandwidth         0.00                       # Average usefull (only data) bandwidth (GB/s) (Ratio)
board.cache_hierarchy.core_tiles0.intra_tile_router.percent_links_utilized            0                       (Unspecified)
board.cache_hierarchy.core_tiles0.intra_tile_router.power_state.pwrStateResidencyTicks::UNDEFINED 1603000058000                       # Cumulative time (in ticks) in various power states (Tick)
board.cache_hierarchy.core_tiles0.intra_tile_router.throttle00.acc_link_utilization            0                       # Accumulated link utilization (Count)
board.cache_hierarchy.core_tiles0.intra_tile_router.throttle00.link_utilization            0                       # Average link utilization (Ratio)
board.cache_hierarchy.core_tiles0.intra_tile_router.throttle00.total_msg_count            0                       # Total number of messages forwarded by this switch (Count)
board.cache_hierarchy.core_tiles0.intra_tile_router.throttle00.total_msg_bytes            0                       # Total number of bytes forwarded by this switch (Byte)
board.cache_hierarchy.core_tiles0.intra_tile_router.throttle00.total_data_msg_bytes            0                       # Total number of data bytes forwarded by this switch (Byte)
board.cache_hierarchy.core_tiles0.intra_tile_router.throttle00.total_msg_wait_time            0                       # Total time spend forwarding messages (Tick)
board.cache_hierarchy.core_tiles0.intra_tile_router.throttle00.total_stall_cy            0                       # Total time spent blocked on any output link (Cycle)
board.cache_hierarchy.core_tiles0.intra_tile_router.throttle00.total_bw_sat_cy            0                       # Total time bandwidth was saturated on any output link (Cycle)
board.cache_hierarchy.core_tiles0.intra_tile_router.throttle00.avg_msg_wait_time          nan                       # Average time a message took to be forwarded (Ratio)
board.cache_hierarchy.core_tiles0.intra_tile_router.throttle00.avg_bandwidth         0.00                       # Average bandwidth (GB/s) (Ratio)
board.cache_hierarchy.core_tiles0.intra_tile_router.throttle00.avg_useful_bandwidth         0.00                       # Average usefull (only data) bandwidth (GB/s) (Ratio)
board.cache_hierarchy.core_tiles0.intra_tile_router.throttle01.acc_link_utilization            0                       # Accumulated link utilization (Count)
board.cache_hierarchy.core_tiles0.intra_tile_router.throttle01.link_utilization            0                       # Average link utilization (Ratio)
board.cache_hierarchy.core_tiles0.intra_tile_router.throttle01.total_msg_count            0                       # Total number of messages forwarded by this switch (Count)
board.cache_hierarchy.core_tiles0.intra_tile_router.throttle01.total_msg_bytes            0                       # Total number of bytes forwarded by this switch (Byte)
board.cache_hierarchy.core_tiles0.intra_tile_router.throttle01.total_data_msg_bytes            0                       # Total number of data bytes forwarded by this switch (Byte)
board.cache_hierarchy.core_tiles0.intra_tile_router.throttle01.total_msg_wait_time            0                       # Total time spend forwarding messages (Tick)
board.cache_hierarchy.core_tiles0.intra_tile_router.throttle01.total_stall_cy            0                       # Total time spent blocked on any output link (Cycle)
board.cache_hierarchy.core_tiles0.intra_tile_router.throttle01.total_bw_sat_cy            0                       # Total time bandwidth was saturated on any output link (Cycle)
board.cache_hierarchy.core_tiles0.intra_tile_router.throttle01.avg_msg_wait_time          nan                       # Average time a message took to be forwarded (Ratio)
board.cache_hierarchy.core_tiles0.intra_tile_router.throttle01.avg_bandwidth         0.00                       # Average bandwidth (GB/s) (Ratio)
board.cache_hierarchy.core_tiles0.intra_tile_router.throttle01.avg_useful_bandwidth         0.00                       # Average usefull (only data) bandwidth (GB/s) (Ratio)
board.cache_hierarchy.core_tiles0.intra_tile_router.throttle02.acc_link_utilization            0                       # Accumulated link utilization (Count)
board.cache_hierarchy.core_tiles0.intra_tile_router.throttle02.link_utilization            0                       # Average link utilization (Ratio)
board.cache_hierarchy.core_tiles0.intra_tile_router.throttle02.total_msg_count            0                       # Total number of messages forwarded by this switch (Count)
board.cache_hierarchy.core_tiles0.intra_tile_router.throttle02.total_msg_bytes            0                       # Total number of bytes forwarded by this switch (Byte)
board.cache_hierarchy.core_tiles0.intra_tile_router.throttle02.total_data_msg_bytes            0                       # Total number of data bytes forwarded by this switch (Byte)
board.cache_hierarchy.core_tiles0.intra_tile_router.throttle02.total_msg_wait_time            0                       # Total time spend forwarding messages (Tick)
board.cache_hierarchy.core_tiles0.intra_tile_router.throttle02.total_stall_cy            0                       # Total time spent blocked on any output link (Cycle)
board.cache_hierarchy.core_tiles0.intra_tile_router.throttle02.total_bw_sat_cy            0                       # Total time bandwidth was saturated on any output link (Cycle)
board.cache_hierarchy.core_tiles0.intra_tile_router.throttle02.avg_msg_wait_time          nan                       # Average time a message took to be forwarded (Ratio)
board.cache_hierarchy.core_tiles0.intra_tile_router.throttle02.avg_bandwidth         0.00                       # Average bandwidth (GB/s) (Ratio)
board.cache_hierarchy.core_tiles0.intra_tile_router.throttle02.avg_useful_bandwidth         0.00                       # Average usefull (only data) bandwidth (GB/s) (Ratio)
board.cache_hierarchy.core_tiles0.intra_tile_router.throttle03.acc_link_utilization            0                       # Accumulated link utilization (Count)
board.cache_hierarchy.core_tiles0.intra_tile_router.throttle03.link_utilization            0                       # Average link utilization (Ratio)
board.cache_hierarchy.core_tiles0.intra_tile_router.throttle03.total_msg_count            0                       # Total number of messages forwarded by this switch (Count)
board.cache_hierarchy.core_tiles0.intra_tile_router.throttle03.total_msg_bytes            0                       # Total number of bytes forwarded by this switch (Byte)
board.cache_hierarchy.core_tiles0.intra_tile_router.throttle03.total_data_msg_bytes            0                       # Total number of data bytes forwarded by this switch (Byte)
board.cache_hierarchy.core_tiles0.intra_tile_router.throttle03.total_msg_wait_time            0                       # Total time spend forwarding messages (Tick)
board.cache_hierarchy.core_tiles0.intra_tile_router.throttle03.total_stall_cy            0                       # Total time spent blocked on any output link (Cycle)
board.cache_hierarchy.core_tiles0.intra_tile_router.throttle03.total_bw_sat_cy            0                       # Total time bandwidth was saturated on any output link (Cycle)
board.cache_hierarchy.core_tiles0.intra_tile_router.throttle03.avg_msg_wait_time          nan                       # Average time a message took to be forwarded (Ratio)
board.cache_hierarchy.core_tiles0.intra_tile_router.throttle03.avg_bandwidth         0.00                       # Average bandwidth (GB/s) (Ratio)
board.cache_hierarchy.core_tiles0.intra_tile_router.throttle03.avg_useful_bandwidth         0.00                       # Average usefull (only data) bandwidth (GB/s) (Ratio)
board.cache_hierarchy.core_tiles0.l1d_cache.avg_size            0                       # Avg. number of slots allocated (Unspecified)
board.cache_hierarchy.core_tiles0.l1d_cache.avg_util            0                       # Avg. utilization (Unspecified)
board.cache_hierarchy.core_tiles0.l1d_cache.avg_reserved            0                       # Avg. number of slots reserved (Unspecified)
board.cache_hierarchy.core_tiles0.l1d_cache.size_hist::samples            0                       # Histogram of TBE util (Count)
board.cache_hierarchy.core_tiles0.l1d_cache.size_hist::mean          nan                       # Histogram of TBE util (Count)
board.cache_hierarchy.core_tiles0.l1d_cache.size_hist::gmean          nan                       # Histogram of TBE util (Count)
board.cache_hierarchy.core_tiles0.l1d_cache.size_hist::stdev          nan                       # Histogram of TBE util (Count)
board.cache_hierarchy.core_tiles0.l1d_cache.size_hist::0            0                       # Histogram of TBE util (Count)
board.cache_hierarchy.core_tiles0.l1d_cache.size_hist::1            0                       # Histogram of TBE util (Count)
board.cache_hierarchy.core_tiles0.l1d_cache.size_hist::2            0                       # Histogram of TBE util (Count)
board.cache_hierarchy.core_tiles0.l1d_cache.size_hist::3            0                       # Histogram of TBE util (Count)
board.cache_hierarchy.core_tiles0.l1d_cache.size_hist::4            0                       # Histogram of TBE util (Count)
board.cache_hierarchy.core_tiles0.l1d_cache.size_hist::5            0                       # Histogram of TBE util (Count)
board.cache_hierarchy.core_tiles0.l1d_cache.size_hist::6            0                       # Histogram of TBE util (Count)
board.cache_hierarchy.core_tiles0.l1d_cache.size_hist::7            0                       # Histogram of TBE util (Count)
board.cache_hierarchy.core_tiles0.l1d_cache.size_hist::8            0                       # Histogram of TBE util (Count)
board.cache_hierarchy.core_tiles0.l1d_cache.size_hist::9            0                       # Histogram of TBE util (Count)
board.cache_hierarchy.core_tiles0.l1d_cache.size_hist::10            0                       # Histogram of TBE util (Count)
board.cache_hierarchy.core_tiles0.l1d_cache.size_hist::11            0                       # Histogram of TBE util (Count)
board.cache_hierarchy.core_tiles0.l1d_cache.size_hist::12            0                       # Histogram of TBE util (Count)
board.cache_hierarchy.core_tiles0.l1d_cache.size_hist::13            0                       # Histogram of TBE util (Count)
board.cache_hierarchy.core_tiles0.l1d_cache.size_hist::14            0                       # Histogram of TBE util (Count)
board.cache_hierarchy.core_tiles0.l1d_cache.size_hist::15            0                       # Histogram of TBE util (Count)
board.cache_hierarchy.core_tiles0.l1d_cache.size_hist::total            0                       # Histogram of TBE util (Count)
board.cache_hierarchy.core_tiles0.l1d_cache.total_full_utilization_ticks            0                       # Total number of ticks with full utilization (Tick)
board.cache_hierarchy.core_tiles0.l1d_cache.avg_size            0                       # Avg. number of slots allocated (Unspecified)
board.cache_hierarchy.core_tiles0.l1d_cache.avg_util            0                       # Avg. utilization (Unspecified)
board.cache_hierarchy.core_tiles0.l1d_cache.avg_reserved            0                       # Avg. number of slots reserved (Unspecified)
board.cache_hierarchy.core_tiles0.l1d_cache.size_hist::samples            0                       # Histogram of TBE util (Count)
board.cache_hierarchy.core_tiles0.l1d_cache.size_hist::mean          nan                       # Histogram of TBE util (Count)
board.cache_hierarchy.core_tiles0.l1d_cache.size_hist::gmean          nan                       # Histogram of TBE util (Count)
board.cache_hierarchy.core_tiles0.l1d_cache.size_hist::stdev          nan                       # Histogram of TBE util (Count)
board.cache_hierarchy.core_tiles0.l1d_cache.size_hist::0            0                       # Histogram of TBE util (Count)
board.cache_hierarchy.core_tiles0.l1d_cache.size_hist::1            0                       # Histogram of TBE util (Count)
board.cache_hierarchy.core_tiles0.l1d_cache.size_hist::2            0                       # Histogram of TBE util (Count)
board.cache_hierarchy.core_tiles0.l1d_cache.size_hist::3            0                       # Histogram of TBE util (Count)
board.cache_hierarchy.core_tiles0.l1d_cache.size_hist::4            0                       # Histogram of TBE util (Count)
board.cache_hierarchy.core_tiles0.l1d_cache.size_hist::5            0                       # Histogram of TBE util (Count)
board.cache_hierarchy.core_tiles0.l1d_cache.size_hist::6            0                       # Histogram of TBE util (Count)
board.cache_hierarchy.core_tiles0.l1d_cache.size_hist::7            0                       # Histogram of TBE util (Count)
board.cache_hierarchy.core_tiles0.l1d_cache.size_hist::8            0                       # Histogram of TBE util (Count)
board.cache_hierarchy.core_tiles0.l1d_cache.size_hist::9            0                       # Histogram of TBE util (Count)
board.cache_hierarchy.core_tiles0.l1d_cache.size_hist::10            0                       # Histogram of TBE util (Count)
board.cache_hierarchy.core_tiles0.l1d_cache.size_hist::11            0                       # Histogram of TBE util (Count)
board.cache_hierarchy.core_tiles0.l1d_cache.size_hist::12            0                       # Histogram of TBE util (Count)
board.cache_hierarchy.core_tiles0.l1d_cache.size_hist::13            0                       # Histogram of TBE util (Count)
board.cache_hierarchy.core_tiles0.l1d_cache.size_hist::14            0                       # Histogram of TBE util (Count)
board.cache_hierarchy.core_tiles0.l1d_cache.size_hist::15            0                       # Histogram of TBE util (Count)
board.cache_hierarchy.core_tiles0.l1d_cache.size_hist::total            0                       # Histogram of TBE util (Count)
board.cache_hierarchy.core_tiles0.l1d_cache.total_full_utilization_ticks            0                       # Total number of ticks with full utilization (Tick)
board.cache_hierarchy.core_tiles0.l1d_cache.avg_size            0                       # Avg. number of slots allocated (Unspecified)
board.cache_hierarchy.core_tiles0.l1d_cache.avg_util            0                       # Avg. utilization (Unspecified)
board.cache_hierarchy.core_tiles0.l1d_cache.avg_reserved            0                       # Avg. number of slots reserved (Unspecified)
board.cache_hierarchy.core_tiles0.l1d_cache.size_hist::samples            0                       # Histogram of TBE util (Count)
board.cache_hierarchy.core_tiles0.l1d_cache.size_hist::mean          nan                       # Histogram of TBE util (Count)
board.cache_hierarchy.core_tiles0.l1d_cache.size_hist::gmean          nan                       # Histogram of TBE util (Count)
board.cache_hierarchy.core_tiles0.l1d_cache.size_hist::stdev          nan                       # Histogram of TBE util (Count)
board.cache_hierarchy.core_tiles0.l1d_cache.size_hist::0            0                       # Histogram of TBE util (Count)
board.cache_hierarchy.core_tiles0.l1d_cache.size_hist::1            0                       # Histogram of TBE util (Count)
board.cache_hierarchy.core_tiles0.l1d_cache.size_hist::2            0                       # Histogram of TBE util (Count)
board.cache_hierarchy.core_tiles0.l1d_cache.size_hist::3            0                       # Histogram of TBE util (Count)
board.cache_hierarchy.core_tiles0.l1d_cache.size_hist::4            0                       # Histogram of TBE util (Count)
board.cache_hierarchy.core_tiles0.l1d_cache.size_hist::5            0                       # Histogram of TBE util (Count)
board.cache_hierarchy.core_tiles0.l1d_cache.size_hist::6            0                       # Histogram of TBE util (Count)
board.cache_hierarchy.core_tiles0.l1d_cache.size_hist::7            0                       # Histogram of TBE util (Count)
board.cache_hierarchy.core_tiles0.l1d_cache.size_hist::8            0                       # Histogram of TBE util (Count)
board.cache_hierarchy.core_tiles0.l1d_cache.size_hist::9            0                       # Histogram of TBE util (Count)
board.cache_hierarchy.core_tiles0.l1d_cache.size_hist::10            0                       # Histogram of TBE util (Count)
board.cache_hierarchy.core_tiles0.l1d_cache.size_hist::11            0                       # Histogram of TBE util (Count)
board.cache_hierarchy.core_tiles0.l1d_cache.size_hist::12            0                       # Histogram of TBE util (Count)
board.cache_hierarchy.core_tiles0.l1d_cache.size_hist::13            0                       # Histogram of TBE util (Count)
board.cache_hierarchy.core_tiles0.l1d_cache.size_hist::14            0                       # Histogram of TBE util (Count)
board.cache_hierarchy.core_tiles0.l1d_cache.size_hist::15            0                       # Histogram of TBE util (Count)
board.cache_hierarchy.core_tiles0.l1d_cache.size_hist::total            0                       # Histogram of TBE util (Count)
board.cache_hierarchy.core_tiles0.l1d_cache.total_full_utilization_ticks            0                       # Total number of ticks with full utilization (Tick)
board.cache_hierarchy.core_tiles0.l1d_cache.avg_size            0                       # Avg. number of slots allocated (Unspecified)
board.cache_hierarchy.core_tiles0.l1d_cache.avg_util            0                       # Avg. utilization (Unspecified)
board.cache_hierarchy.core_tiles0.l1d_cache.avg_reserved            0                       # Avg. number of slots reserved (Unspecified)
board.cache_hierarchy.core_tiles0.l1d_cache.size_hist::samples            0                       # Histogram of TBE util (Count)
board.cache_hierarchy.core_tiles0.l1d_cache.size_hist::mean          nan                       # Histogram of TBE util (Count)
board.cache_hierarchy.core_tiles0.l1d_cache.size_hist::gmean          nan                       # Histogram of TBE util (Count)
board.cache_hierarchy.core_tiles0.l1d_cache.size_hist::stdev          nan                       # Histogram of TBE util (Count)
board.cache_hierarchy.core_tiles0.l1d_cache.size_hist::0            0                       # Histogram of TBE util (Count)
board.cache_hierarchy.core_tiles0.l1d_cache.size_hist::1            0                       # Histogram of TBE util (Count)
board.cache_hierarchy.core_tiles0.l1d_cache.size_hist::2            0                       # Histogram of TBE util (Count)
board.cache_hierarchy.core_tiles0.l1d_cache.size_hist::3            0                       # Histogram of TBE util (Count)
board.cache_hierarchy.core_tiles0.l1d_cache.size_hist::4            0                       # Histogram of TBE util (Count)
board.cache_hierarchy.core_tiles0.l1d_cache.size_hist::5            0                       # Histogram of TBE util (Count)
board.cache_hierarchy.core_tiles0.l1d_cache.size_hist::6            0                       # Histogram of TBE util (Count)
board.cache_hierarchy.core_tiles0.l1d_cache.size_hist::7            0                       # Histogram of TBE util (Count)
board.cache_hierarchy.core_tiles0.l1d_cache.size_hist::8            0                       # Histogram of TBE util (Count)
board.cache_hierarchy.core_tiles0.l1d_cache.size_hist::9            0                       # Histogram of TBE util (Count)
board.cache_hierarchy.core_tiles0.l1d_cache.size_hist::10            0                       # Histogram of TBE util (Count)
board.cache_hierarchy.core_tiles0.l1d_cache.size_hist::11            0                       # Histogram of TBE util (Count)
board.cache_hierarchy.core_tiles0.l1d_cache.size_hist::12            0                       # Histogram of TBE util (Count)
board.cache_hierarchy.core_tiles0.l1d_cache.size_hist::13            0                       # Histogram of TBE util (Count)
board.cache_hierarchy.core_tiles0.l1d_cache.size_hist::14            0                       # Histogram of TBE util (Count)
board.cache_hierarchy.core_tiles0.l1d_cache.size_hist::15            0                       # Histogram of TBE util (Count)
board.cache_hierarchy.core_tiles0.l1d_cache.size_hist::total            0                       # Histogram of TBE util (Count)
board.cache_hierarchy.core_tiles0.l1d_cache.total_full_utilization_ticks            0                       # Total number of ticks with full utilization (Tick)
board.cache_hierarchy.core_tiles0.l1d_cache.avg_size            0                       # Avg. number of slots allocated (Unspecified)
board.cache_hierarchy.core_tiles0.l1d_cache.avg_util            0                       # Avg. utilization (Unspecified)
board.cache_hierarchy.core_tiles0.l1d_cache.avg_reserved            0                       # Avg. number of slots reserved (Unspecified)
board.cache_hierarchy.core_tiles0.l1d_cache.size_hist::samples            0                       # Histogram of TBE util (Count)
board.cache_hierarchy.core_tiles0.l1d_cache.size_hist::mean          nan                       # Histogram of TBE util (Count)
board.cache_hierarchy.core_tiles0.l1d_cache.size_hist::gmean          nan                       # Histogram of TBE util (Count)
board.cache_hierarchy.core_tiles0.l1d_cache.size_hist::stdev          nan                       # Histogram of TBE util (Count)
board.cache_hierarchy.core_tiles0.l1d_cache.size_hist::0            0                       # Histogram of TBE util (Count)
board.cache_hierarchy.core_tiles0.l1d_cache.size_hist::1            0                       # Histogram of TBE util (Count)
board.cache_hierarchy.core_tiles0.l1d_cache.size_hist::2            0                       # Histogram of TBE util (Count)
board.cache_hierarchy.core_tiles0.l1d_cache.size_hist::3            0                       # Histogram of TBE util (Count)
board.cache_hierarchy.core_tiles0.l1d_cache.size_hist::4            0                       # Histogram of TBE util (Count)
board.cache_hierarchy.core_tiles0.l1d_cache.size_hist::5            0                       # Histogram of TBE util (Count)
board.cache_hierarchy.core_tiles0.l1d_cache.size_hist::6            0                       # Histogram of TBE util (Count)
board.cache_hierarchy.core_tiles0.l1d_cache.size_hist::7            0                       # Histogram of TBE util (Count)
board.cache_hierarchy.core_tiles0.l1d_cache.size_hist::8            0                       # Histogram of TBE util (Count)
board.cache_hierarchy.core_tiles0.l1d_cache.size_hist::9            0                       # Histogram of TBE util (Count)
board.cache_hierarchy.core_tiles0.l1d_cache.size_hist::10            0                       # Histogram of TBE util (Count)
board.cache_hierarchy.core_tiles0.l1d_cache.size_hist::11            0                       # Histogram of TBE util (Count)
board.cache_hierarchy.core_tiles0.l1d_cache.size_hist::12            0                       # Histogram of TBE util (Count)
board.cache_hierarchy.core_tiles0.l1d_cache.size_hist::13            0                       # Histogram of TBE util (Count)
board.cache_hierarchy.core_tiles0.l1d_cache.size_hist::14            0                       # Histogram of TBE util (Count)
board.cache_hierarchy.core_tiles0.l1d_cache.size_hist::15            0                       # Histogram of TBE util (Count)
board.cache_hierarchy.core_tiles0.l1d_cache.size_hist::total            0                       # Histogram of TBE util (Count)
board.cache_hierarchy.core_tiles0.l1d_cache.total_full_utilization_ticks            0                       # Total number of ticks with full utilization (Tick)
board.cache_hierarchy.core_tiles0.l1d_cache.cache.m_demand_hits            0                       # Number of cache demand hits (Unspecified)
board.cache_hierarchy.core_tiles0.l1d_cache.cache.m_demand_misses            0                       # Number of cache demand misses (Unspecified)
board.cache_hierarchy.core_tiles0.l1d_cache.cache.m_demand_accesses            0                       # Number of cache demand accesses (Unspecified)
board.cache_hierarchy.core_tiles0.l1d_cache.power_state.pwrStateResidencyTicks::UNDEFINED 1603000058000                       # Cumulative time (in ticks) in various power states (Tick)
board.cache_hierarchy.core_tiles0.l1d_cache.sequencer.power_state.pwrStateResidencyTicks::UNDEFINED 1603000058000                       # Cumulative time (in ticks) in various power states (Tick)
board.cache_hierarchy.core_tiles0.l1i_cache.avg_size            0                       # Avg. number of slots allocated (Unspecified)
board.cache_hierarchy.core_tiles0.l1i_cache.avg_util            0                       # Avg. utilization (Unspecified)
board.cache_hierarchy.core_tiles0.l1i_cache.avg_reserved            0                       # Avg. number of slots reserved (Unspecified)
board.cache_hierarchy.core_tiles0.l1i_cache.size_hist::samples            0                       # Histogram of TBE util (Count)
board.cache_hierarchy.core_tiles0.l1i_cache.size_hist::mean          nan                       # Histogram of TBE util (Count)
board.cache_hierarchy.core_tiles0.l1i_cache.size_hist::gmean          nan                       # Histogram of TBE util (Count)
board.cache_hierarchy.core_tiles0.l1i_cache.size_hist::stdev          nan                       # Histogram of TBE util (Count)
board.cache_hierarchy.core_tiles0.l1i_cache.size_hist::0            0                       # Histogram of TBE util (Count)
board.cache_hierarchy.core_tiles0.l1i_cache.size_hist::1            0                       # Histogram of TBE util (Count)
board.cache_hierarchy.core_tiles0.l1i_cache.size_hist::2            0                       # Histogram of TBE util (Count)
board.cache_hierarchy.core_tiles0.l1i_cache.size_hist::3            0                       # Histogram of TBE util (Count)
board.cache_hierarchy.core_tiles0.l1i_cache.size_hist::4            0                       # Histogram of TBE util (Count)
board.cache_hierarchy.core_tiles0.l1i_cache.size_hist::5            0                       # Histogram of TBE util (Count)
board.cache_hierarchy.core_tiles0.l1i_cache.size_hist::6            0                       # Histogram of TBE util (Count)
board.cache_hierarchy.core_tiles0.l1i_cache.size_hist::7            0                       # Histogram of TBE util (Count)
board.cache_hierarchy.core_tiles0.l1i_cache.size_hist::8            0                       # Histogram of TBE util (Count)
board.cache_hierarchy.core_tiles0.l1i_cache.size_hist::9            0                       # Histogram of TBE util (Count)
board.cache_hierarchy.core_tiles0.l1i_cache.size_hist::10            0                       # Histogram of TBE util (Count)
board.cache_hierarchy.core_tiles0.l1i_cache.size_hist::11            0                       # Histogram of TBE util (Count)
board.cache_hierarchy.core_tiles0.l1i_cache.size_hist::12            0                       # Histogram of TBE util (Count)
board.cache_hierarchy.core_tiles0.l1i_cache.size_hist::13            0                       # Histogram of TBE util (Count)
board.cache_hierarchy.core_tiles0.l1i_cache.size_hist::14            0                       # Histogram of TBE util (Count)
board.cache_hierarchy.core_tiles0.l1i_cache.size_hist::15            0                       # Histogram of TBE util (Count)
board.cache_hierarchy.core_tiles0.l1i_cache.size_hist::total            0                       # Histogram of TBE util (Count)
board.cache_hierarchy.core_tiles0.l1i_cache.total_full_utilization_ticks            0                       # Total number of ticks with full utilization (Tick)
board.cache_hierarchy.core_tiles0.l1i_cache.avg_size            0                       # Avg. number of slots allocated (Unspecified)
board.cache_hierarchy.core_tiles0.l1i_cache.avg_util            0                       # Avg. utilization (Unspecified)
board.cache_hierarchy.core_tiles0.l1i_cache.avg_reserved            0                       # Avg. number of slots reserved (Unspecified)
board.cache_hierarchy.core_tiles0.l1i_cache.size_hist::samples            0                       # Histogram of TBE util (Count)
board.cache_hierarchy.core_tiles0.l1i_cache.size_hist::mean          nan                       # Histogram of TBE util (Count)
board.cache_hierarchy.core_tiles0.l1i_cache.size_hist::gmean          nan                       # Histogram of TBE util (Count)
board.cache_hierarchy.core_tiles0.l1i_cache.size_hist::stdev          nan                       # Histogram of TBE util (Count)
board.cache_hierarchy.core_tiles0.l1i_cache.size_hist::0            0                       # Histogram of TBE util (Count)
board.cache_hierarchy.core_tiles0.l1i_cache.size_hist::1            0                       # Histogram of TBE util (Count)
board.cache_hierarchy.core_tiles0.l1i_cache.size_hist::2            0                       # Histogram of TBE util (Count)
board.cache_hierarchy.core_tiles0.l1i_cache.size_hist::3            0                       # Histogram of TBE util (Count)
board.cache_hierarchy.core_tiles0.l1i_cache.size_hist::4            0                       # Histogram of TBE util (Count)
board.cache_hierarchy.core_tiles0.l1i_cache.size_hist::5            0                       # Histogram of TBE util (Count)
board.cache_hierarchy.core_tiles0.l1i_cache.size_hist::6            0                       # Histogram of TBE util (Count)
board.cache_hierarchy.core_tiles0.l1i_cache.size_hist::7            0                       # Histogram of TBE util (Count)
board.cache_hierarchy.core_tiles0.l1i_cache.size_hist::8            0                       # Histogram of TBE util (Count)
board.cache_hierarchy.core_tiles0.l1i_cache.size_hist::9            0                       # Histogram of TBE util (Count)
board.cache_hierarchy.core_tiles0.l1i_cache.size_hist::10            0                       # Histogram of TBE util (Count)
board.cache_hierarchy.core_tiles0.l1i_cache.size_hist::11            0                       # Histogram of TBE util (Count)
board.cache_hierarchy.core_tiles0.l1i_cache.size_hist::12            0                       # Histogram of TBE util (Count)
board.cache_hierarchy.core_tiles0.l1i_cache.size_hist::13            0                       # Histogram of TBE util (Count)
board.cache_hierarchy.core_tiles0.l1i_cache.size_hist::14            0                       # Histogram of TBE util (Count)
board.cache_hierarchy.core_tiles0.l1i_cache.size_hist::15            0                       # Histogram of TBE util (Count)
board.cache_hierarchy.core_tiles0.l1i_cache.size_hist::total            0                       # Histogram of TBE util (Count)
board.cache_hierarchy.core_tiles0.l1i_cache.total_full_utilization_ticks            0                       # Total number of ticks with full utilization (Tick)
board.cache_hierarchy.core_tiles0.l1i_cache.avg_size            0                       # Avg. number of slots allocated (Unspecified)
board.cache_hierarchy.core_tiles0.l1i_cache.avg_util            0                       # Avg. utilization (Unspecified)
board.cache_hierarchy.core_tiles0.l1i_cache.avg_reserved            0                       # Avg. number of slots reserved (Unspecified)
board.cache_hierarchy.core_tiles0.l1i_cache.size_hist::samples            0                       # Histogram of TBE util (Count)
board.cache_hierarchy.core_tiles0.l1i_cache.size_hist::mean          nan                       # Histogram of TBE util (Count)
board.cache_hierarchy.core_tiles0.l1i_cache.size_hist::gmean          nan                       # Histogram of TBE util (Count)
board.cache_hierarchy.core_tiles0.l1i_cache.size_hist::stdev          nan                       # Histogram of TBE util (Count)
board.cache_hierarchy.core_tiles0.l1i_cache.size_hist::0            0                       # Histogram of TBE util (Count)
board.cache_hierarchy.core_tiles0.l1i_cache.size_hist::1            0                       # Histogram of TBE util (Count)
board.cache_hierarchy.core_tiles0.l1i_cache.size_hist::2            0                       # Histogram of TBE util (Count)
board.cache_hierarchy.core_tiles0.l1i_cache.size_hist::3            0                       # Histogram of TBE util (Count)
board.cache_hierarchy.core_tiles0.l1i_cache.size_hist::4            0                       # Histogram of TBE util (Count)
board.cache_hierarchy.core_tiles0.l1i_cache.size_hist::5            0                       # Histogram of TBE util (Count)
board.cache_hierarchy.core_tiles0.l1i_cache.size_hist::6            0                       # Histogram of TBE util (Count)
board.cache_hierarchy.core_tiles0.l1i_cache.size_hist::7            0                       # Histogram of TBE util (Count)
board.cache_hierarchy.core_tiles0.l1i_cache.size_hist::8            0                       # Histogram of TBE util (Count)
board.cache_hierarchy.core_tiles0.l1i_cache.size_hist::9            0                       # Histogram of TBE util (Count)
board.cache_hierarchy.core_tiles0.l1i_cache.size_hist::10            0                       # Histogram of TBE util (Count)
board.cache_hierarchy.core_tiles0.l1i_cache.size_hist::11            0                       # Histogram of TBE util (Count)
board.cache_hierarchy.core_tiles0.l1i_cache.size_hist::12            0                       # Histogram of TBE util (Count)
board.cache_hierarchy.core_tiles0.l1i_cache.size_hist::13            0                       # Histogram of TBE util (Count)
board.cache_hierarchy.core_tiles0.l1i_cache.size_hist::14            0                       # Histogram of TBE util (Count)
board.cache_hierarchy.core_tiles0.l1i_cache.size_hist::15            0                       # Histogram of TBE util (Count)
board.cache_hierarchy.core_tiles0.l1i_cache.size_hist::total            0                       # Histogram of TBE util (Count)
board.cache_hierarchy.core_tiles0.l1i_cache.total_full_utilization_ticks            0                       # Total number of ticks with full utilization (Tick)
board.cache_hierarchy.core_tiles0.l1i_cache.avg_size            0                       # Avg. number of slots allocated (Unspecified)
board.cache_hierarchy.core_tiles0.l1i_cache.avg_util            0                       # Avg. utilization (Unspecified)
board.cache_hierarchy.core_tiles0.l1i_cache.avg_reserved            0                       # Avg. number of slots reserved (Unspecified)
board.cache_hierarchy.core_tiles0.l1i_cache.size_hist::samples            0                       # Histogram of TBE util (Count)
board.cache_hierarchy.core_tiles0.l1i_cache.size_hist::mean          nan                       # Histogram of TBE util (Count)
board.cache_hierarchy.core_tiles0.l1i_cache.size_hist::gmean          nan                       # Histogram of TBE util (Count)
board.cache_hierarchy.core_tiles0.l1i_cache.size_hist::stdev          nan                       # Histogram of TBE util (Count)
board.cache_hierarchy.core_tiles0.l1i_cache.size_hist::0            0                       # Histogram of TBE util (Count)
board.cache_hierarchy.core_tiles0.l1i_cache.size_hist::1            0                       # Histogram of TBE util (Count)
board.cache_hierarchy.core_tiles0.l1i_cache.size_hist::2            0                       # Histogram of TBE util (Count)
board.cache_hierarchy.core_tiles0.l1i_cache.size_hist::3            0                       # Histogram of TBE util (Count)
board.cache_hierarchy.core_tiles0.l1i_cache.size_hist::4            0                       # Histogram of TBE util (Count)
board.cache_hierarchy.core_tiles0.l1i_cache.size_hist::5            0                       # Histogram of TBE util (Count)
board.cache_hierarchy.core_tiles0.l1i_cache.size_hist::6            0                       # Histogram of TBE util (Count)
board.cache_hierarchy.core_tiles0.l1i_cache.size_hist::7            0                       # Histogram of TBE util (Count)
board.cache_hierarchy.core_tiles0.l1i_cache.size_hist::8            0                       # Histogram of TBE util (Count)
board.cache_hierarchy.core_tiles0.l1i_cache.size_hist::9            0                       # Histogram of TBE util (Count)
board.cache_hierarchy.core_tiles0.l1i_cache.size_hist::10            0                       # Histogram of TBE util (Count)
board.cache_hierarchy.core_tiles0.l1i_cache.size_hist::11            0                       # Histogram of TBE util (Count)
board.cache_hierarchy.core_tiles0.l1i_cache.size_hist::12            0                       # Histogram of TBE util (Count)
board.cache_hierarchy.core_tiles0.l1i_cache.size_hist::13            0                       # Histogram of TBE util (Count)
board.cache_hierarchy.core_tiles0.l1i_cache.size_hist::14            0                       # Histogram of TBE util (Count)
board.cache_hierarchy.core_tiles0.l1i_cache.size_hist::15            0                       # Histogram of TBE util (Count)
board.cache_hierarchy.core_tiles0.l1i_cache.size_hist::total            0                       # Histogram of TBE util (Count)
board.cache_hierarchy.core_tiles0.l1i_cache.total_full_utilization_ticks            0                       # Total number of ticks with full utilization (Tick)
board.cache_hierarchy.core_tiles0.l1i_cache.avg_size            0                       # Avg. number of slots allocated (Unspecified)
board.cache_hierarchy.core_tiles0.l1i_cache.avg_util            0                       # Avg. utilization (Unspecified)
board.cache_hierarchy.core_tiles0.l1i_cache.avg_reserved            0                       # Avg. number of slots reserved (Unspecified)
board.cache_hierarchy.core_tiles0.l1i_cache.size_hist::samples            0                       # Histogram of TBE util (Count)
board.cache_hierarchy.core_tiles0.l1i_cache.size_hist::mean          nan                       # Histogram of TBE util (Count)
board.cache_hierarchy.core_tiles0.l1i_cache.size_hist::gmean          nan                       # Histogram of TBE util (Count)
board.cache_hierarchy.core_tiles0.l1i_cache.size_hist::stdev          nan                       # Histogram of TBE util (Count)
board.cache_hierarchy.core_tiles0.l1i_cache.size_hist::0            0                       # Histogram of TBE util (Count)
board.cache_hierarchy.core_tiles0.l1i_cache.size_hist::1            0                       # Histogram of TBE util (Count)
board.cache_hierarchy.core_tiles0.l1i_cache.size_hist::2            0                       # Histogram of TBE util (Count)
board.cache_hierarchy.core_tiles0.l1i_cache.size_hist::3            0                       # Histogram of TBE util (Count)
board.cache_hierarchy.core_tiles0.l1i_cache.size_hist::4            0                       # Histogram of TBE util (Count)
board.cache_hierarchy.core_tiles0.l1i_cache.size_hist::5            0                       # Histogram of TBE util (Count)
board.cache_hierarchy.core_tiles0.l1i_cache.size_hist::6            0                       # Histogram of TBE util (Count)
board.cache_hierarchy.core_tiles0.l1i_cache.size_hist::7            0                       # Histogram of TBE util (Count)
board.cache_hierarchy.core_tiles0.l1i_cache.size_hist::8            0                       # Histogram of TBE util (Count)
board.cache_hierarchy.core_tiles0.l1i_cache.size_hist::9            0                       # Histogram of TBE util (Count)
board.cache_hierarchy.core_tiles0.l1i_cache.size_hist::10            0                       # Histogram of TBE util (Count)
board.cache_hierarchy.core_tiles0.l1i_cache.size_hist::11            0                       # Histogram of TBE util (Count)
board.cache_hierarchy.core_tiles0.l1i_cache.size_hist::12            0                       # Histogram of TBE util (Count)
board.cache_hierarchy.core_tiles0.l1i_cache.size_hist::13            0                       # Histogram of TBE util (Count)
board.cache_hierarchy.core_tiles0.l1i_cache.size_hist::14            0                       # Histogram of TBE util (Count)
board.cache_hierarchy.core_tiles0.l1i_cache.size_hist::15            0                       # Histogram of TBE util (Count)
board.cache_hierarchy.core_tiles0.l1i_cache.size_hist::total            0                       # Histogram of TBE util (Count)
board.cache_hierarchy.core_tiles0.l1i_cache.total_full_utilization_ticks            0                       # Total number of ticks with full utilization (Tick)
board.cache_hierarchy.core_tiles0.l1i_cache.cache.m_demand_hits            0                       # Number of cache demand hits (Unspecified)
board.cache_hierarchy.core_tiles0.l1i_cache.cache.m_demand_misses            0                       # Number of cache demand misses (Unspecified)
board.cache_hierarchy.core_tiles0.l1i_cache.cache.m_demand_accesses            0                       # Number of cache demand accesses (Unspecified)
board.cache_hierarchy.core_tiles0.l1i_cache.power_state.pwrStateResidencyTicks::UNDEFINED 1603000058000                       # Cumulative time (in ticks) in various power states (Tick)
board.cache_hierarchy.core_tiles0.l1i_cache.prefetcher.demandMshrMisses            0                       # demands not covered by prefetchs (Count)
board.cache_hierarchy.core_tiles0.l1i_cache.prefetcher.pfIssued            0                       # number of hwpf issued (Count)
board.cache_hierarchy.core_tiles0.l1i_cache.prefetcher.pfUseful            0                       # number of useful prefetch (Count)
board.cache_hierarchy.core_tiles0.l1i_cache.prefetcher.pfUsefulButMiss            0                       # number of hit on prefetch but cache block is not in an usable state (Count)
board.cache_hierarchy.core_tiles0.l1i_cache.prefetcher.accuracy          nan                       # accuracy of the prefetcher (Count)
board.cache_hierarchy.core_tiles0.l1i_cache.prefetcher.coverage          nan                       # coverage brought by this prefetcher (Count)
board.cache_hierarchy.core_tiles0.l1i_cache.prefetcher.pfHitInCache            0                       # number of prefetches hitting in cache (Count)
board.cache_hierarchy.core_tiles0.l1i_cache.prefetcher.pfHitInMSHR            0                       # number of prefetches hitting in a MSHR (Count)
board.cache_hierarchy.core_tiles0.l1i_cache.prefetcher.pfHitInWB            0                       # number of prefetches hit in the Write Buffer (Count)
board.cache_hierarchy.core_tiles0.l1i_cache.prefetcher.pfLate            0                       # number of late prefetches (hitting in cache, MSHR or WB) (Count)
board.cache_hierarchy.core_tiles0.l1i_cache.prefetcher.pfIdentified            0                       # number of prefetch candidates identified (Count)
board.cache_hierarchy.core_tiles0.l1i_cache.prefetcher.pfBufferHit            0                       # number of redundant prefetches already in prefetch queue (Count)
board.cache_hierarchy.core_tiles0.l1i_cache.prefetcher.pfInCache            0                       # number of redundant prefetches already in cache/mshr dropped (Count)
board.cache_hierarchy.core_tiles0.l1i_cache.prefetcher.pfRemovedDemand            0                       # number of prefetches dropped due to a demand for the same address (Count)
board.cache_hierarchy.core_tiles0.l1i_cache.prefetcher.pfRemovedFull            0                       # number of prefetches dropped due to prefetch queue size (Count)
board.cache_hierarchy.core_tiles0.l1i_cache.prefetcher.pfSpanPage            0                       # number of prefetches that crossed the page (Count)
board.cache_hierarchy.core_tiles0.l1i_cache.prefetcher.pfUsefulSpanPage            0                       # number of prefetches that is useful and crossed the page (Count)
board.cache_hierarchy.core_tiles0.l1i_cache.prefetcher.power_state.pwrStateResidencyTicks::UNDEFINED 1603000058000                       # Cumulative time (in ticks) in various power states (Tick)
board.cache_hierarchy.core_tiles0.l1i_cache.sequencer.power_state.pwrStateResidencyTicks::UNDEFINED 1603000058000                       # Cumulative time (in ticks) in various power states (Tick)
board.cache_hierarchy.core_tiles0.l2_cache.avg_size            0                       # Avg. number of slots allocated (Unspecified)
board.cache_hierarchy.core_tiles0.l2_cache.avg_util            0                       # Avg. utilization (Unspecified)
board.cache_hierarchy.core_tiles0.l2_cache.avg_reserved            0                       # Avg. number of slots reserved (Unspecified)
board.cache_hierarchy.core_tiles0.l2_cache.size_hist::samples            0                       # Histogram of TBE util (Count)
board.cache_hierarchy.core_tiles0.l2_cache.size_hist::mean          nan                       # Histogram of TBE util (Count)
board.cache_hierarchy.core_tiles0.l2_cache.size_hist::gmean          nan                       # Histogram of TBE util (Count)
board.cache_hierarchy.core_tiles0.l2_cache.size_hist::stdev          nan                       # Histogram of TBE util (Count)
board.cache_hierarchy.core_tiles0.l2_cache.size_hist::0            0                       # Histogram of TBE util (Count)
board.cache_hierarchy.core_tiles0.l2_cache.size_hist::1            0                       # Histogram of TBE util (Count)
board.cache_hierarchy.core_tiles0.l2_cache.size_hist::2            0                       # Histogram of TBE util (Count)
board.cache_hierarchy.core_tiles0.l2_cache.size_hist::3            0                       # Histogram of TBE util (Count)
board.cache_hierarchy.core_tiles0.l2_cache.size_hist::4            0                       # Histogram of TBE util (Count)
board.cache_hierarchy.core_tiles0.l2_cache.size_hist::5            0                       # Histogram of TBE util (Count)
board.cache_hierarchy.core_tiles0.l2_cache.size_hist::6            0                       # Histogram of TBE util (Count)
board.cache_hierarchy.core_tiles0.l2_cache.size_hist::7            0                       # Histogram of TBE util (Count)
board.cache_hierarchy.core_tiles0.l2_cache.size_hist::8            0                       # Histogram of TBE util (Count)
board.cache_hierarchy.core_tiles0.l2_cache.size_hist::9            0                       # Histogram of TBE util (Count)
board.cache_hierarchy.core_tiles0.l2_cache.size_hist::10            0                       # Histogram of TBE util (Count)
board.cache_hierarchy.core_tiles0.l2_cache.size_hist::11            0                       # Histogram of TBE util (Count)
board.cache_hierarchy.core_tiles0.l2_cache.size_hist::12            0                       # Histogram of TBE util (Count)
board.cache_hierarchy.core_tiles0.l2_cache.size_hist::13            0                       # Histogram of TBE util (Count)
board.cache_hierarchy.core_tiles0.l2_cache.size_hist::14            0                       # Histogram of TBE util (Count)
board.cache_hierarchy.core_tiles0.l2_cache.size_hist::15            0                       # Histogram of TBE util (Count)
board.cache_hierarchy.core_tiles0.l2_cache.size_hist::total            0                       # Histogram of TBE util (Count)
board.cache_hierarchy.core_tiles0.l2_cache.total_full_utilization_ticks            0                       # Total number of ticks with full utilization (Tick)
board.cache_hierarchy.core_tiles0.l2_cache.avg_size            0                       # Avg. number of slots allocated (Unspecified)
board.cache_hierarchy.core_tiles0.l2_cache.avg_util            0                       # Avg. utilization (Unspecified)
board.cache_hierarchy.core_tiles0.l2_cache.avg_reserved            0                       # Avg. number of slots reserved (Unspecified)
board.cache_hierarchy.core_tiles0.l2_cache.size_hist::samples            0                       # Histogram of TBE util (Count)
board.cache_hierarchy.core_tiles0.l2_cache.size_hist::mean          nan                       # Histogram of TBE util (Count)
board.cache_hierarchy.core_tiles0.l2_cache.size_hist::gmean          nan                       # Histogram of TBE util (Count)
board.cache_hierarchy.core_tiles0.l2_cache.size_hist::stdev          nan                       # Histogram of TBE util (Count)
board.cache_hierarchy.core_tiles0.l2_cache.size_hist::0            0                       # Histogram of TBE util (Count)
board.cache_hierarchy.core_tiles0.l2_cache.size_hist::1            0                       # Histogram of TBE util (Count)
board.cache_hierarchy.core_tiles0.l2_cache.size_hist::2            0                       # Histogram of TBE util (Count)
board.cache_hierarchy.core_tiles0.l2_cache.size_hist::3            0                       # Histogram of TBE util (Count)
board.cache_hierarchy.core_tiles0.l2_cache.size_hist::4            0                       # Histogram of TBE util (Count)
board.cache_hierarchy.core_tiles0.l2_cache.size_hist::5            0                       # Histogram of TBE util (Count)
board.cache_hierarchy.core_tiles0.l2_cache.size_hist::6            0                       # Histogram of TBE util (Count)
board.cache_hierarchy.core_tiles0.l2_cache.size_hist::7            0                       # Histogram of TBE util (Count)
board.cache_hierarchy.core_tiles0.l2_cache.size_hist::8            0                       # Histogram of TBE util (Count)
board.cache_hierarchy.core_tiles0.l2_cache.size_hist::9            0                       # Histogram of TBE util (Count)
board.cache_hierarchy.core_tiles0.l2_cache.size_hist::10            0                       # Histogram of TBE util (Count)
board.cache_hierarchy.core_tiles0.l2_cache.size_hist::11            0                       # Histogram of TBE util (Count)
board.cache_hierarchy.core_tiles0.l2_cache.size_hist::12            0                       # Histogram of TBE util (Count)
board.cache_hierarchy.core_tiles0.l2_cache.size_hist::13            0                       # Histogram of TBE util (Count)
board.cache_hierarchy.core_tiles0.l2_cache.size_hist::14            0                       # Histogram of TBE util (Count)
board.cache_hierarchy.core_tiles0.l2_cache.size_hist::15            0                       # Histogram of TBE util (Count)
board.cache_hierarchy.core_tiles0.l2_cache.size_hist::total            0                       # Histogram of TBE util (Count)
board.cache_hierarchy.core_tiles0.l2_cache.total_full_utilization_ticks            0                       # Total number of ticks with full utilization (Tick)
board.cache_hierarchy.core_tiles0.l2_cache.avg_size            0                       # Avg. number of slots allocated (Unspecified)
board.cache_hierarchy.core_tiles0.l2_cache.avg_util            0                       # Avg. utilization (Unspecified)
board.cache_hierarchy.core_tiles0.l2_cache.avg_reserved            0                       # Avg. number of slots reserved (Unspecified)
board.cache_hierarchy.core_tiles0.l2_cache.size_hist::samples            0                       # Histogram of TBE util (Count)
board.cache_hierarchy.core_tiles0.l2_cache.size_hist::mean          nan                       # Histogram of TBE util (Count)
board.cache_hierarchy.core_tiles0.l2_cache.size_hist::gmean          nan                       # Histogram of TBE util (Count)
board.cache_hierarchy.core_tiles0.l2_cache.size_hist::stdev          nan                       # Histogram of TBE util (Count)
board.cache_hierarchy.core_tiles0.l2_cache.size_hist::0            0                       # Histogram of TBE util (Count)
board.cache_hierarchy.core_tiles0.l2_cache.size_hist::1            0                       # Histogram of TBE util (Count)
board.cache_hierarchy.core_tiles0.l2_cache.size_hist::2            0                       # Histogram of TBE util (Count)
board.cache_hierarchy.core_tiles0.l2_cache.size_hist::3            0                       # Histogram of TBE util (Count)
board.cache_hierarchy.core_tiles0.l2_cache.size_hist::4            0                       # Histogram of TBE util (Count)
board.cache_hierarchy.core_tiles0.l2_cache.size_hist::5            0                       # Histogram of TBE util (Count)
board.cache_hierarchy.core_tiles0.l2_cache.size_hist::6            0                       # Histogram of TBE util (Count)
board.cache_hierarchy.core_tiles0.l2_cache.size_hist::7            0                       # Histogram of TBE util (Count)
board.cache_hierarchy.core_tiles0.l2_cache.size_hist::8            0                       # Histogram of TBE util (Count)
board.cache_hierarchy.core_tiles0.l2_cache.size_hist::9            0                       # Histogram of TBE util (Count)
board.cache_hierarchy.core_tiles0.l2_cache.size_hist::10            0                       # Histogram of TBE util (Count)
board.cache_hierarchy.core_tiles0.l2_cache.size_hist::11            0                       # Histogram of TBE util (Count)
board.cache_hierarchy.core_tiles0.l2_cache.size_hist::12            0                       # Histogram of TBE util (Count)
board.cache_hierarchy.core_tiles0.l2_cache.size_hist::13            0                       # Histogram of TBE util (Count)
board.cache_hierarchy.core_tiles0.l2_cache.size_hist::14            0                       # Histogram of TBE util (Count)
board.cache_hierarchy.core_tiles0.l2_cache.size_hist::15            0                       # Histogram of TBE util (Count)
board.cache_hierarchy.core_tiles0.l2_cache.size_hist::total            0                       # Histogram of TBE util (Count)
board.cache_hierarchy.core_tiles0.l2_cache.total_full_utilization_ticks            0                       # Total number of ticks with full utilization (Tick)
board.cache_hierarchy.core_tiles0.l2_cache.avg_size            0                       # Avg. number of slots allocated (Unspecified)
board.cache_hierarchy.core_tiles0.l2_cache.avg_util            0                       # Avg. utilization (Unspecified)
board.cache_hierarchy.core_tiles0.l2_cache.avg_reserved            0                       # Avg. number of slots reserved (Unspecified)
board.cache_hierarchy.core_tiles0.l2_cache.size_hist::samples            0                       # Histogram of TBE util (Count)
board.cache_hierarchy.core_tiles0.l2_cache.size_hist::mean          nan                       # Histogram of TBE util (Count)
board.cache_hierarchy.core_tiles0.l2_cache.size_hist::gmean          nan                       # Histogram of TBE util (Count)
board.cache_hierarchy.core_tiles0.l2_cache.size_hist::stdev          nan                       # Histogram of TBE util (Count)
board.cache_hierarchy.core_tiles0.l2_cache.size_hist::0            0                       # Histogram of TBE util (Count)
board.cache_hierarchy.core_tiles0.l2_cache.size_hist::1            0                       # Histogram of TBE util (Count)
board.cache_hierarchy.core_tiles0.l2_cache.size_hist::2            0                       # Histogram of TBE util (Count)
board.cache_hierarchy.core_tiles0.l2_cache.size_hist::3            0                       # Histogram of TBE util (Count)
board.cache_hierarchy.core_tiles0.l2_cache.size_hist::4            0                       # Histogram of TBE util (Count)
board.cache_hierarchy.core_tiles0.l2_cache.size_hist::5            0                       # Histogram of TBE util (Count)
board.cache_hierarchy.core_tiles0.l2_cache.size_hist::6            0                       # Histogram of TBE util (Count)
board.cache_hierarchy.core_tiles0.l2_cache.size_hist::7            0                       # Histogram of TBE util (Count)
board.cache_hierarchy.core_tiles0.l2_cache.size_hist::8            0                       # Histogram of TBE util (Count)
board.cache_hierarchy.core_tiles0.l2_cache.size_hist::9            0                       # Histogram of TBE util (Count)
board.cache_hierarchy.core_tiles0.l2_cache.size_hist::10            0                       # Histogram of TBE util (Count)
board.cache_hierarchy.core_tiles0.l2_cache.size_hist::11            0                       # Histogram of TBE util (Count)
board.cache_hierarchy.core_tiles0.l2_cache.size_hist::12            0                       # Histogram of TBE util (Count)
board.cache_hierarchy.core_tiles0.l2_cache.size_hist::13            0                       # Histogram of TBE util (Count)
board.cache_hierarchy.core_tiles0.l2_cache.size_hist::14            0                       # Histogram of TBE util (Count)
board.cache_hierarchy.core_tiles0.l2_cache.size_hist::15            0                       # Histogram of TBE util (Count)
board.cache_hierarchy.core_tiles0.l2_cache.size_hist::total            0                       # Histogram of TBE util (Count)
board.cache_hierarchy.core_tiles0.l2_cache.total_full_utilization_ticks            0                       # Total number of ticks with full utilization (Tick)
board.cache_hierarchy.core_tiles0.l2_cache.avg_size            0                       # Avg. number of slots allocated (Unspecified)
board.cache_hierarchy.core_tiles0.l2_cache.avg_util            0                       # Avg. utilization (Unspecified)
board.cache_hierarchy.core_tiles0.l2_cache.avg_reserved            0                       # Avg. number of slots reserved (Unspecified)
board.cache_hierarchy.core_tiles0.l2_cache.size_hist::samples            0                       # Histogram of TBE util (Count)
board.cache_hierarchy.core_tiles0.l2_cache.size_hist::mean          nan                       # Histogram of TBE util (Count)
board.cache_hierarchy.core_tiles0.l2_cache.size_hist::gmean          nan                       # Histogram of TBE util (Count)
board.cache_hierarchy.core_tiles0.l2_cache.size_hist::stdev          nan                       # Histogram of TBE util (Count)
board.cache_hierarchy.core_tiles0.l2_cache.size_hist::0            0                       # Histogram of TBE util (Count)
board.cache_hierarchy.core_tiles0.l2_cache.size_hist::1            0                       # Histogram of TBE util (Count)
board.cache_hierarchy.core_tiles0.l2_cache.size_hist::2            0                       # Histogram of TBE util (Count)
board.cache_hierarchy.core_tiles0.l2_cache.size_hist::3            0                       # Histogram of TBE util (Count)
board.cache_hierarchy.core_tiles0.l2_cache.size_hist::4            0                       # Histogram of TBE util (Count)
board.cache_hierarchy.core_tiles0.l2_cache.size_hist::5            0                       # Histogram of TBE util (Count)
board.cache_hierarchy.core_tiles0.l2_cache.size_hist::6            0                       # Histogram of TBE util (Count)
board.cache_hierarchy.core_tiles0.l2_cache.size_hist::7            0                       # Histogram of TBE util (Count)
board.cache_hierarchy.core_tiles0.l2_cache.size_hist::8            0                       # Histogram of TBE util (Count)
board.cache_hierarchy.core_tiles0.l2_cache.size_hist::9            0                       # Histogram of TBE util (Count)
board.cache_hierarchy.core_tiles0.l2_cache.size_hist::10            0                       # Histogram of TBE util (Count)
board.cache_hierarchy.core_tiles0.l2_cache.size_hist::11            0                       # Histogram of TBE util (Count)
board.cache_hierarchy.core_tiles0.l2_cache.size_hist::12            0                       # Histogram of TBE util (Count)
board.cache_hierarchy.core_tiles0.l2_cache.size_hist::13            0                       # Histogram of TBE util (Count)
board.cache_hierarchy.core_tiles0.l2_cache.size_hist::14            0                       # Histogram of TBE util (Count)
board.cache_hierarchy.core_tiles0.l2_cache.size_hist::15            0                       # Histogram of TBE util (Count)
board.cache_hierarchy.core_tiles0.l2_cache.size_hist::total            0                       # Histogram of TBE util (Count)
board.cache_hierarchy.core_tiles0.l2_cache.total_full_utilization_ticks            0                       # Total number of ticks with full utilization (Tick)
board.cache_hierarchy.core_tiles0.l2_cache.cache.m_demand_hits            0                       # Number of cache demand hits (Unspecified)
board.cache_hierarchy.core_tiles0.l2_cache.cache.m_demand_misses            0                       # Number of cache demand misses (Unspecified)
board.cache_hierarchy.core_tiles0.l2_cache.cache.m_demand_accesses            0                       # Number of cache demand accesses (Unspecified)
board.cache_hierarchy.core_tiles0.l2_cache.power_state.pwrStateResidencyTicks::UNDEFINED 1603000058000                       # Cumulative time (in ticks) in various power states (Tick)
board.cache_hierarchy.core_tiles0.l3_router.percent_links_utilized            0                       (Unspecified)
board.cache_hierarchy.core_tiles0.l3_router.power_state.pwrStateResidencyTicks::UNDEFINED 1603000058000                       # Cumulative time (in ticks) in various power states (Tick)
board.cache_hierarchy.core_tiles0.l3_router.throttle00.acc_link_utilization            0                       # Accumulated link utilization (Count)
board.cache_hierarchy.core_tiles0.l3_router.throttle00.link_utilization            0                       # Average link utilization (Ratio)
board.cache_hierarchy.core_tiles0.l3_router.throttle00.total_msg_count            0                       # Total number of messages forwarded by this switch (Count)
board.cache_hierarchy.core_tiles0.l3_router.throttle00.total_msg_bytes            0                       # Total number of bytes forwarded by this switch (Byte)
board.cache_hierarchy.core_tiles0.l3_router.throttle00.total_data_msg_bytes            0                       # Total number of data bytes forwarded by this switch (Byte)
board.cache_hierarchy.core_tiles0.l3_router.throttle00.total_msg_wait_time            0                       # Total time spend forwarding messages (Tick)
board.cache_hierarchy.core_tiles0.l3_router.throttle00.total_stall_cy            0                       # Total time spent blocked on any output link (Cycle)
board.cache_hierarchy.core_tiles0.l3_router.throttle00.total_bw_sat_cy            0                       # Total time bandwidth was saturated on any output link (Cycle)
board.cache_hierarchy.core_tiles0.l3_router.throttle00.avg_msg_wait_time          nan                       # Average time a message took to be forwarded (Ratio)
board.cache_hierarchy.core_tiles0.l3_router.throttle00.avg_bandwidth         0.00                       # Average bandwidth (GB/s) (Ratio)
board.cache_hierarchy.core_tiles0.l3_router.throttle00.avg_useful_bandwidth         0.00                       # Average usefull (only data) bandwidth (GB/s) (Ratio)
board.cache_hierarchy.core_tiles0.l3_router.throttle01.acc_link_utilization            0                       # Accumulated link utilization (Count)
board.cache_hierarchy.core_tiles0.l3_router.throttle01.link_utilization            0                       # Average link utilization (Ratio)
board.cache_hierarchy.core_tiles0.l3_router.throttle01.total_msg_count            0                       # Total number of messages forwarded by this switch (Count)
board.cache_hierarchy.core_tiles0.l3_router.throttle01.total_msg_bytes            0                       # Total number of bytes forwarded by this switch (Byte)
board.cache_hierarchy.core_tiles0.l3_router.throttle01.total_data_msg_bytes            0                       # Total number of data bytes forwarded by this switch (Byte)
board.cache_hierarchy.core_tiles0.l3_router.throttle01.total_msg_wait_time            0                       # Total time spend forwarding messages (Tick)
board.cache_hierarchy.core_tiles0.l3_router.throttle01.total_stall_cy            0                       # Total time spent blocked on any output link (Cycle)
board.cache_hierarchy.core_tiles0.l3_router.throttle01.total_bw_sat_cy            0                       # Total time bandwidth was saturated on any output link (Cycle)
board.cache_hierarchy.core_tiles0.l3_router.throttle01.avg_msg_wait_time          nan                       # Average time a message took to be forwarded (Ratio)
board.cache_hierarchy.core_tiles0.l3_router.throttle01.avg_bandwidth         0.00                       # Average bandwidth (GB/s) (Ratio)
board.cache_hierarchy.core_tiles0.l3_router.throttle01.avg_useful_bandwidth         0.00                       # Average usefull (only data) bandwidth (GB/s) (Ratio)
board.cache_hierarchy.core_tiles0.l3_router.throttle02.acc_link_utilization            0                       # Accumulated link utilization (Count)
board.cache_hierarchy.core_tiles0.l3_router.throttle02.link_utilization            0                       # Average link utilization (Ratio)
board.cache_hierarchy.core_tiles0.l3_router.throttle02.total_msg_count            0                       # Total number of messages forwarded by this switch (Count)
board.cache_hierarchy.core_tiles0.l3_router.throttle02.total_msg_bytes            0                       # Total number of bytes forwarded by this switch (Byte)
board.cache_hierarchy.core_tiles0.l3_router.throttle02.total_data_msg_bytes            0                       # Total number of data bytes forwarded by this switch (Byte)
board.cache_hierarchy.core_tiles0.l3_router.throttle02.total_msg_wait_time            0                       # Total time spend forwarding messages (Tick)
board.cache_hierarchy.core_tiles0.l3_router.throttle02.total_stall_cy            0                       # Total time spent blocked on any output link (Cycle)
board.cache_hierarchy.core_tiles0.l3_router.throttle02.total_bw_sat_cy            0                       # Total time bandwidth was saturated on any output link (Cycle)
board.cache_hierarchy.core_tiles0.l3_router.throttle02.avg_msg_wait_time          nan                       # Average time a message took to be forwarded (Ratio)
board.cache_hierarchy.core_tiles0.l3_router.throttle02.avg_bandwidth         0.00                       # Average bandwidth (GB/s) (Ratio)
board.cache_hierarchy.core_tiles0.l3_router.throttle02.avg_useful_bandwidth         0.00                       # Average usefull (only data) bandwidth (GB/s) (Ratio)
board.cache_hierarchy.core_tiles0.l3_slice.avg_size            0                       # Avg. number of slots allocated (Unspecified)
board.cache_hierarchy.core_tiles0.l3_slice.avg_util            0                       # Avg. utilization (Unspecified)
board.cache_hierarchy.core_tiles0.l3_slice.avg_reserved            0                       # Avg. number of slots reserved (Unspecified)
board.cache_hierarchy.core_tiles0.l3_slice.size_hist::samples            0                       # Histogram of TBE util (Count)
board.cache_hierarchy.core_tiles0.l3_slice.size_hist::mean          nan                       # Histogram of TBE util (Count)
board.cache_hierarchy.core_tiles0.l3_slice.size_hist::gmean          nan                       # Histogram of TBE util (Count)
board.cache_hierarchy.core_tiles0.l3_slice.size_hist::stdev          nan                       # Histogram of TBE util (Count)
board.cache_hierarchy.core_tiles0.l3_slice.size_hist::0            0                       # Histogram of TBE util (Count)
board.cache_hierarchy.core_tiles0.l3_slice.size_hist::1            0                       # Histogram of TBE util (Count)
board.cache_hierarchy.core_tiles0.l3_slice.size_hist::2            0                       # Histogram of TBE util (Count)
board.cache_hierarchy.core_tiles0.l3_slice.size_hist::3            0                       # Histogram of TBE util (Count)
board.cache_hierarchy.core_tiles0.l3_slice.size_hist::4            0                       # Histogram of TBE util (Count)
board.cache_hierarchy.core_tiles0.l3_slice.size_hist::5            0                       # Histogram of TBE util (Count)
board.cache_hierarchy.core_tiles0.l3_slice.size_hist::6            0                       # Histogram of TBE util (Count)
board.cache_hierarchy.core_tiles0.l3_slice.size_hist::7            0                       # Histogram of TBE util (Count)
board.cache_hierarchy.core_tiles0.l3_slice.size_hist::8            0                       # Histogram of TBE util (Count)
board.cache_hierarchy.core_tiles0.l3_slice.size_hist::9            0                       # Histogram of TBE util (Count)
board.cache_hierarchy.core_tiles0.l3_slice.size_hist::10            0                       # Histogram of TBE util (Count)
board.cache_hierarchy.core_tiles0.l3_slice.size_hist::11            0                       # Histogram of TBE util (Count)
board.cache_hierarchy.core_tiles0.l3_slice.size_hist::12            0                       # Histogram of TBE util (Count)
board.cache_hierarchy.core_tiles0.l3_slice.size_hist::13            0                       # Histogram of TBE util (Count)
board.cache_hierarchy.core_tiles0.l3_slice.size_hist::14            0                       # Histogram of TBE util (Count)
board.cache_hierarchy.core_tiles0.l3_slice.size_hist::15            0                       # Histogram of TBE util (Count)
board.cache_hierarchy.core_tiles0.l3_slice.size_hist::total            0                       # Histogram of TBE util (Count)
board.cache_hierarchy.core_tiles0.l3_slice.total_full_utilization_ticks            0                       # Total number of ticks with full utilization (Tick)
board.cache_hierarchy.core_tiles0.l3_slice.avg_size            0                       # Avg. number of slots allocated (Unspecified)
board.cache_hierarchy.core_tiles0.l3_slice.avg_util            0                       # Avg. utilization (Unspecified)
board.cache_hierarchy.core_tiles0.l3_slice.avg_reserved            0                       # Avg. number of slots reserved (Unspecified)
[...]
board.processor.cores7.core.mmu.dtb.hits            0                       # Total TLB (inst and data) hits (Count)
board.processor.cores7.core.mmu.dtb.misses            0                       # Total TLB (inst and data) misses (Count)
board.processor.cores7.core.mmu.dtb.accesses            0                       # Total TLB (inst and data) accesses (Count)
board.processor.cores7.core.mmu.dtb_walker.walks            0                       # Table walker walks requested (Count)
board.processor.cores7.core.mmu.dtb_walker.requestOrigin_Requested::Data            0                       # Table walker requests started/completed, data/inst (Count)
board.processor.cores7.core.mmu.dtb_walker.requestOrigin_Requested::Inst            0                       # Table walker requests started/completed, data/inst (Count)
board.processor.cores7.core.mmu.dtb_walker.requestOrigin_Requested::total            0                       # Table walker requests started/completed, data/inst (Count)
board.processor.cores7.core.mmu.dtb_walker.requestOrigin_Completed::Data            0                       # Table walker requests started/completed, data/inst (Count)
board.processor.cores7.core.mmu.dtb_walker.requestOrigin_Completed::Inst            0                       # Table walker requests started/completed, data/inst (Count)
board.processor.cores7.core.mmu.dtb_walker.requestOrigin_Completed::total            0                       # Table walker requests started/completed, data/inst (Count)
board.processor.cores7.core.mmu.dtb_walker.requestOrigin::total            0                       # Table walker requests started/completed, data/inst (Count)
board.processor.cores7.core.mmu.dtb_walker.power_state.pwrStateResidencyTicks::UNDEFINED 1603000058000                       # Cumulative time (in ticks) in various power states (Tick)
board.processor.cores7.core.mmu.itb.instHits            0                       # Inst hits (Count)
board.processor.cores7.core.mmu.itb.instMisses            0                       # Inst misses (Count)
board.processor.cores7.core.mmu.itb.inserts            0                       # Number of times an entry is inserted into the TLB (Count)
board.processor.cores7.core.mmu.itb.flushTlb            0                       # Number of times a TLB invalidation was requested (Count)
board.processor.cores7.core.mmu.itb.flushedEntries            0                       # Number of entries that have been flushed from TLB (Count)
board.processor.cores7.core.mmu.itb.instAccesses            0                       # Inst accesses (Count)
board.processor.cores7.core.mmu.itb.hits            0                       # Total TLB (inst and data) hits (Count)
board.processor.cores7.core.mmu.itb.misses            0                       # Total TLB (inst and data) misses (Count)
board.processor.cores7.core.mmu.itb.accesses            0                       # Total TLB (inst and data) accesses (Count)
board.processor.cores7.core.mmu.itb_walker.walks            0                       # Table walker walks requested (Count)
board.processor.cores7.core.mmu.itb_walker.requestOrigin_Requested::Data            0                       # Table walker requests started/completed, data/inst (Count)
board.processor.cores7.core.mmu.itb_walker.requestOrigin_Requested::Inst            0                       # Table walker requests started/completed, data/inst (Count)
board.processor.cores7.core.mmu.itb_walker.requestOrigin_Requested::total            0                       # Table walker requests started/completed, data/inst (Count)
board.processor.cores7.core.mmu.itb_walker.requestOrigin_Completed::Data            0                       # Table walker requests started/completed, data/inst (Count)
board.processor.cores7.core.mmu.itb_walker.requestOrigin_Completed::Inst            0                       # Table walker requests started/completed, data/inst (Count)
board.processor.cores7.core.mmu.itb_walker.requestOrigin_Completed::total            0                       # Table walker requests started/completed, data/inst (Count)
board.processor.cores7.core.mmu.itb_walker.requestOrigin::total            0                       # Table walker requests started/completed, data/inst (Count)
board.processor.cores7.core.mmu.itb_walker.power_state.pwrStateResidencyTicks::UNDEFINED 1603000058000                       # Cumulative time (in ticks) in various power states (Tick)
board.processor.cores7.core.mmu.l2_shared.instHits            0                       # Inst hits (Count)
board.processor.cores7.core.mmu.l2_shared.instMisses            0                       # Inst misses (Count)
board.processor.cores7.core.mmu.l2_shared.inserts            0                       # Number of times an entry is inserted into the TLB (Count)
board.processor.cores7.core.mmu.l2_shared.flushTlb            0                       # Number of times a TLB invalidation was requested (Count)
board.processor.cores7.core.mmu.l2_shared.flushedEntries            0                       # Number of entries that have been flushed from TLB (Count)
board.processor.cores7.core.mmu.l2_shared.instAccesses            0                       # Inst accesses (Count)
board.processor.cores7.core.mmu.l2_shared.hits            0                       # Total TLB (inst and data) hits (Count)
board.processor.cores7.core.mmu.l2_shared.misses            0                       # Total TLB (inst and data) misses (Count)
board.processor.cores7.core.mmu.l2_shared.accesses            0                       # Total TLB (inst and data) accesses (Count)
board.processor.cores7.core.mmu.stage2_dtb.readHits            0                       # Read hits (Count)
board.processor.cores7.core.mmu.stage2_dtb.readMisses            0                       # Read misses (Count)
board.processor.cores7.core.mmu.stage2_dtb.writeHits            0                       # Write hits (Count)
board.processor.cores7.core.mmu.stage2_dtb.writeMisses            0                       # Write misses (Count)
board.processor.cores7.core.mmu.stage2_dtb.inserts            0                       # Number of times an entry is inserted into the TLB (Count)
board.processor.cores7.core.mmu.stage2_dtb.flushTlb            0                       # Number of times a TLB invalidation was requested (Count)
board.processor.cores7.core.mmu.stage2_dtb.flushedEntries            0                       # Number of entries that have been flushed from TLB (Count)
board.processor.cores7.core.mmu.stage2_dtb.readAccesses            0                       # Read accesses (Count)
board.processor.cores7.core.mmu.stage2_dtb.writeAccesses            0                       # Write accesses (Count)
board.processor.cores7.core.mmu.stage2_dtb.hits            0                       # Total TLB (inst and data) hits (Count)
board.processor.cores7.core.mmu.stage2_dtb.misses            0                       # Total TLB (inst and data) misses (Count)
board.processor.cores7.core.mmu.stage2_dtb.accesses            0                       # Total TLB (inst and data) accesses (Count)
board.processor.cores7.core.mmu.stage2_dtb_walker.walks            0                       # Table walker walks requested (Count)
board.processor.cores7.core.mmu.stage2_dtb_walker.requestOrigin_Requested::Data            0                       # Table walker requests started/completed, data/inst (Count)
board.processor.cores7.core.mmu.stage2_dtb_walker.requestOrigin_Requested::Inst            0                       # Table walker requests started/completed, data/inst (Count)
board.processor.cores7.core.mmu.stage2_dtb_walker.requestOrigin_Requested::total            0                       # Table walker requests started/completed, data/inst (Count)
board.processor.cores7.core.mmu.stage2_dtb_walker.requestOrigin_Completed::Data            0                       # Table walker requests started/completed, data/inst (Count)
board.processor.cores7.core.mmu.stage2_dtb_walker.requestOrigin_Completed::Inst            0                       # Table walker requests started/completed, data/inst (Count)
board.processor.cores7.core.mmu.stage2_dtb_walker.requestOrigin_Completed::total            0                       # Table walker requests started/completed, data/inst (Count)
board.processor.cores7.core.mmu.stage2_dtb_walker.requestOrigin::total            0                       # Table walker requests started/completed, data/inst (Count)
board.processor.cores7.core.mmu.stage2_dtb_walker.power_state.pwrStateResidencyTicks::UNDEFINED 1603000058000                       # Cumulative time (in ticks) in various power states (Tick)
board.processor.cores7.core.mmu.stage2_itb.instHits            0                       # Inst hits (Count)
board.processor.cores7.core.mmu.stage2_itb.instMisses            0                       # Inst misses (Count)
board.processor.cores7.core.mmu.stage2_itb.inserts            0                       # Number of times an entry is inserted into the TLB (Count)
board.processor.cores7.core.mmu.stage2_itb.flushTlb            0                       # Number of times a TLB invalidation was requested (Count)
board.processor.cores7.core.mmu.stage2_itb.flushedEntries            0                       # Number of entries that have been flushed from TLB (Count)
board.processor.cores7.core.mmu.stage2_itb.instAccesses            0                       # Inst accesses (Count)
board.processor.cores7.core.mmu.stage2_itb.hits            0                       # Total TLB (inst and data) hits (Count)
board.processor.cores7.core.mmu.stage2_itb.misses            0                       # Total TLB (inst and data) misses (Count)
board.processor.cores7.core.mmu.stage2_itb.accesses            0                       # Total TLB (inst and data) accesses (Count)
board.processor.cores7.core.mmu.stage2_itb_walker.walks            0                       # Table walker walks requested (Count)
board.processor.cores7.core.mmu.stage2_itb_walker.requestOrigin_Requested::Data            0                       # Table walker requests started/completed, data/inst (Count)
board.processor.cores7.core.mmu.stage2_itb_walker.requestOrigin_Requested::Inst            0                       # Table walker requests started/completed, data/inst (Count)
board.processor.cores7.core.mmu.stage2_itb_walker.requestOrigin_Requested::total            0                       # Table walker requests started/completed, data/inst (Count)
board.processor.cores7.core.mmu.stage2_itb_walker.requestOrigin_Completed::Data            0                       # Table walker requests started/completed, data/inst (Count)
board.processor.cores7.core.mmu.stage2_itb_walker.requestOrigin_Completed::Inst            0                       # Table walker requests started/completed, data/inst (Count)
board.processor.cores7.core.mmu.stage2_itb_walker.requestOrigin_Completed::total            0                       # Table walker requests started/completed, data/inst (Count)
board.processor.cores7.core.mmu.stage2_itb_walker.requestOrigin::total            0                       # Table walker requests started/completed, data/inst (Count)
board.processor.cores7.core.mmu.stage2_itb_walker.power_state.pwrStateResidencyTicks::UNDEFINED 1603000058000                       # Cumulative time (in ticks) in various power states (Tick)
board.processor.cores7.core.power_state.pwrStateResidencyTicks::ON 1603000058000                       # Cumulative time (in ticks) in various power states (Tick)
board.processor.cores7.core.thread_0.numInsts            0                       # Number of Instructions committed (Count)
board.processor.cores7.core.thread_0.numOps            0                       # Number of Ops committed (Count)
board.processor.cores7.core.thread_0.numMemRefs            0                       # Number of Memory References (Count)
board.realview.bootmem.power_state.pwrStateResidencyTicks::UNDEFINED 1603000058000                       # Cumulative time (in ticks) in various power states (Tick)
board.realview.clock24MHz.clock                 41667                       # Clock period in ticks (Tick)
board.realview.clock32KHz.clock              31250000                       # Clock period in ticks (Tick)
board.realview.dcc.osc_cpu.clock                16667                       # Clock period in ticks (Tick)
board.realview.dcc.osc_ddr.clock                25000                       # Clock period in ticks (Tick)
board.realview.dcc.osc_hsbm.clock               25000                       # Clock period in ticks (Tick)
board.realview.dcc.osc_pxl.clock                42105                       # Clock period in ticks (Tick)
board.realview.dcc.osc_smb.clock                20000                       # Clock period in ticks (Tick)
board.realview.dcc.osc_sys.clock                16667                       # Clock period in ticks (Tick)
board.realview.el2_watchdog.power_state.pwrStateResidencyTicks::UNDEFINED 1603000058000                       # Cumulative time (in ticks) in various power states (Tick)
board.realview.energy_ctrl.power_state.pwrStateResidencyTicks::UNDEFINED 1603000058000                       # Cumulative time (in ticks) in various power states (Tick)
board.realview.flash0.power_state.pwrStateResidencyTicks::UNDEFINED 1603000058000                       # Cumulative time (in ticks) in various power states (Tick)
board.realview.flash1.power_state.pwrStateResidencyTicks::UNDEFINED 1603000058000                       # Cumulative time (in ticks) in various power states (Tick)
board.realview.generic_timer_mem.frames0.power_state.pwrStateResidencyTicks::UNDEFINED 1603000058000                       # Cumulative time (in ticks) in various power states (Tick)
board.realview.generic_timer_mem.frames1.power_state.pwrStateResidencyTicks::UNDEFINED 1603000058000                       # Cumulative time (in ticks) in various power states (Tick)
board.realview.generic_timer_mem.power_state.pwrStateResidencyTicks::UNDEFINED 1603000058000                       # Cumulative time (in ticks) in various power states (Tick)
board.realview.gic.power_state.pwrStateResidencyTicks::UNDEFINED 1603000058000                       # Cumulative time (in ticks) in various power states (Tick)
board.realview.gicv2m.power_state.pwrStateResidencyTicks::UNDEFINED 1603000058000                       # Cumulative time (in ticks) in various power states (Tick)
board.realview.io_voltage.voltage            3.300000                       # Voltage in Volts (Volt)
board.realview.kmi0.power_state.pwrStateResidencyTicks::UNDEFINED 1603000058000                       # Cumulative time (in ticks) in various power states (Tick)
board.realview.kmi1.power_state.pwrStateResidencyTicks::UNDEFINED 1603000058000                       # Cumulative time (in ticks) in various power states (Tick)
board.realview.mcc.osc_clcd.clock               42105                       # Clock period in ticks (Tick)
board.realview.mcc.osc_mcc.clock                20000                       # Clock period in ticks (Tick)
board.realview.mcc.osc_peripheral.clock         41667                       # Clock period in ticks (Tick)
board.realview.mcc.osc_system_bus.clock         41667                       # Clock period in ticks (Tick)
board.realview.non_trusted_sram.power_state.pwrStateResidencyTicks::UNDEFINED 1603000058000                       # Cumulative time (in ticks) in various power states (Tick)
board.realview.pci_host.power_state.pwrStateResidencyTicks::UNDEFINED 1603000058000                       # Cumulative time (in ticks) in various power states (Tick)
board.realview.pwr_ctrl.power_state.pwrStateResidencyTicks::UNDEFINED 1603000058000                       # Cumulative time (in ticks) in various power states (Tick)
board.realview.realview_io.power_state.pwrStateResidencyTicks::UNDEFINED 1603000058000                       # Cumulative time (in ticks) in various power states (Tick)
board.realview.rtc.power_state.pwrStateResidencyTicks::UNDEFINED 1603000058000                       # Cumulative time (in ticks) in various power states (Tick)
board.realview.system_watchdog.power_state.pwrStateResidencyTicks::UNDEFINED 1603000058000                       # Cumulative time (in ticks) in various power states (Tick)
board.realview.trusted_dram.power_state.pwrStateResidencyTicks::UNDEFINED 1603000058000                       # Cumulative time (in ticks) in various power states (Tick)
board.realview.trusted_sram.power_state.pwrStateResidencyTicks::UNDEFINED 1603000058000                       # Cumulative time (in ticks) in various power states (Tick)
board.realview.trusted_watchdog.power_state.pwrStateResidencyTicks::UNDEFINED 1603000058000                       # Cumulative time (in ticks) in various power states (Tick)
board.realview.uart0.power_state.pwrStateResidencyTicks::UNDEFINED 1603000058000                       # Cumulative time (in ticks) in various power states (Tick)
board.realview.uart1.power_state.pwrStateResidencyTicks::UNDEFINED 1603000058000                       # Cumulative time (in ticks) in various power states (Tick)
board.realview.uart2.power_state.pwrStateResidencyTicks::UNDEFINED 1603000058000                       # Cumulative time (in ticks) in various power states (Tick)
board.realview.uart3.power_state.pwrStateResidencyTicks::UNDEFINED 1603000058000                       # Cumulative time (in ticks) in various power states (Tick)
board.realview.vgic.power_state.pwrStateResidencyTicks::UNDEFINED 1603000058000                       # Cumulative time (in ticks) in various power states (Tick)
board.realview.vio0.power_state.pwrStateResidencyTicks::UNDEFINED 1603000058000                       # Cumulative time (in ticks) in various power states (Tick)
board.realview.vio1.power_state.pwrStateResidencyTicks::UNDEFINED 1603000058000                       # Cumulative time (in ticks) in various power states (Tick)
board.realview.vram.power_state.pwrStateResidencyTicks::UNDEFINED 1603000058000                       # Cumulative time (in ticks) in various power states (Tick)
board.realview.watchdog.power_state.pwrStateResidencyTicks::UNDEFINED 1603000058000                       # Cumulative time (in ticks) in various power states (Tick)
board.traffic_snoopers0.power_state.pwrStateResidencyTicks::UNDEFINED 1603000058000                       # Cumulative time (in ticks) in various power states (Tick)
board.traffic_snoopers1.power_state.pwrStateResidencyTicks::UNDEFINED 1603000058000                       # Cumulative time (in ticks) in various power states (Tick)
board.traffic_snoopers2.power_state.pwrStateResidencyTicks::UNDEFINED 1603000058000                       # Cumulative time (in ticks) in various power states (Tick)
board.traffic_snoopers3.power_state.pwrStateResidencyTicks::UNDEFINED 1603000058000                       # Cumulative time (in ticks) in various power states (Tick)
board.traffic_snoopers4.power_state.pwrStateResidencyTicks::UNDEFINED 1603000058000                       # Cumulative time (in ticks) in various power states (Tick)
board.traffic_snoopers5.power_state.pwrStateResidencyTicks::UNDEFINED 1603000058000                       # Cumulative time (in ticks) in various power states (Tick)
board.traffic_snoopers6.power_state.pwrStateResidencyTicks::UNDEFINED 1603000058000                       # Cumulative time (in ticks) in various power states (Tick)
board.traffic_snoopers7.power_state.pwrStateResidencyTicks::UNDEFINED 1603000058000                       # Cumulative time (in ticks) in various power states (Tick)
board.voltage_domain.voltage                        1                       # Voltage in Volts (Volt)
board.workload.inst.arm                             0                       # number of arm instructions executed (Count)
board.workload.inst.quiesce                         0                       # number of quiesce instructions executed (Count)

---------- End Simulation Statistics   ----------
